[TITLE]
A modification of the Richmond Skelton Water Supply System from Exeter Univ's B
by Brad Eck (bradley.eck@ie.ibm.com) for us as a pump scheduling test problem  
Summary of Mods -- 20 Oct 2013                                                 

[JUNCTIONS]
 4                                   183.0000
 9                                    68.8500
 10                                  166.4200
 42                                   60.0000
 104                                 184.0000
 164                                  65.0000
 175                                  65.0000
 186                                 112.1800
 197                                 115.0000
 206                                 134.9900
 249                                 101.0000
 264                                 174.0000
 284                                 176.0000
 312                                 242.0000
 320                                 242.0000
 321                                 242.0000
 325                                 242.0000
 353                                 185.7800
 364                                 217.0000
 632                                  60.0000
 633                                  60.0000
 634                                 139.0200
 635                                 139.8200
 636                                 139.8200
 637                                 140.0000
 701                                 198.3300
 729                                 202.1500
 745                                 177.0000
 753                                 177.0000
 766                                  69.7000
 768                                  69.5900
 770                                  69.3900
 771                                  69.0000
 1125                                184.0000
 1302                                216.6500
 1963                                 60.0000
 2009                                 60.0000
 1250                                176.0000
 2010                                 69.0000
 777                                 100.0000
 E                                   203.0100

[RESERVOIRS]
 O                                     1.0000  40                             

[TANKS]
 C                                   258.9000       0.9200       0.5000       2.0000       6.6000      17.1060 
 A                                   184.1300       1.5500       1.0200       3.3700      23.5000     442.4109 
 D                                   241.1800       2.0000       1.1000       2.1100      11.8000     120.2947 
 B                                   216.0000       2.5000       2.0300       3.6500      15.4000     378.1180 
 F                                   235.7100       1.0000       0.1900       2.1900       3.6000       1.9340 

[PIPES]
 788                             A                               4                                    18.0000     150.0000     120.0000       0.0000 
 790                             4                               10                                  401.0000     150.0000     120.0000       0.0000 
 793                             4                               104                                  18.0000     150.0000     120.0000       0.0000 
 794                             9                               42                                 1087.0000     300.0000     140.0000       0.0000 
 841                             42                              164                                3002.0000     250.0000     140.0000       0.0000 
 911                             104                             206                                 846.0000     152.0000     110.0000       0.0000 
 912                             104                             264                                  44.0000     100.0000     100.0000       0.0000 
 993                             164                             175                                  18.0000     250.0000     130.0000       0.0000 
 1020                            186                             197                                   5.0000     250.0000     140.0000       0.0000 
 1033                            164                             197                                  16.0000     250.0000     137.5000       0.0000 CV
 1036                            197                             284                                2003.0000     250.0000     130.0000       0.0000 
 1085                            206                             249                                  30.0000      76.0000      80.0000       0.0000 
 1107                            249                             634                                   6.0000     100.0000      70.0000       0.0000 
 1153                            284                             1250                                 13.0000     200.0000     130.0000       0.0000 
 1154                            1125                            312                                1261.0000     150.0000     100.0000       0.0000 CV
 1178                            284                             A                                    18.0000     229.0000      75.0000       0.0000 
 1196                            312                             D                                    15.0000     100.0000      30.0000       0.0000 CV
 1208                            320                             321                                   7.0000      80.0000      90.0000       0.0000 
 1209                            320                             325                                   3.0000     150.0000     100.0000       0.0000 
 1210                            321                             312                                  23.0000     150.0000     100.0000       0.0000 CV
 1278                            353                             364                                 472.0000     200.0000     130.0000       0.0000 
 1301                            B                               1302                                 10.0000     152.0000      70.0000       0.0000 
 1304                            B                               364                                   7.0000     152.0000      70.0000       0.0000 
 1638                            632                             633                                   5.0000     300.0000     120.0000       0.0000 
 1645                            634                             635                                   2.0000     100.0000     130.0000       0.0000 
 1653                            636                             637                                   1.0000     100.0000     120.0000       0.0000 CV
 1677                            2010                            770                                   5.0000     300.0000     120.0000       0.0000 CV
 1740                            637                             C                                  4028.0000     100.0000     130.0000       0.0000 
 1752                            321                             701                                 365.0000     150.0000     140.0000       0.0000 
 1753                            701                             729                                5612.0000     152.0000     110.0000       0.0000 
 1783                            729                             E                                  1591.0000      76.0000      70.0000       0.0000 CV
 1793                            E                               745                                 444.0000     102.0000      70.0000       0.0000 CV
 1832                            753                             F                                  1216.0000      76.0000      87.5000       0.0000 
 1842                            766                             768                                   5.0000     300.0000     150.0000       0.0000 
 1844                            768                             770                                   4.0000     300.0000     150.0000       0.0000 
 1848                            770                             771                                   5.0000     300.0000     150.0000       0.0000 
 1849                            771                             9                                    26.0000     150.0000     100.0000       0.0000 
 1913                            O                               632                                   8.0000     300.0000     120.0000       0.0000 
 1964                            633                             1963                                  4.0000     150.0000     100.0000       0.0000 
 1978                            D                               320                                  17.0000     150.0000     100.0000       0.0000 
 2010                            632                             2009                                  4.0000     150.0000     100.0000       0.0000 
 p1                              633                             2010                                  1.0000     300.0000     120.0000       0.0000 
 p2                              777                             A                                    20.0000     200.0000     100.0000       0.0000 

[PUMPS]
 7F                              745                             753                              HEAD 1883   PATTERN  pmp7Fpat
 2A                              1963                            768                              HEAD 2015   PATTERN  pmp2Apat
 5C                              635                             636                              HEAD 1884   PATTERN  pmp5Cpat
 6D                              264                             1125                             HEAD 1123   PATTERN  pmp6Dpat
 3A                              175                             186                              HEAD 1006   PATTERN  pmp3Apat
 4B                              1250                            353                              HEAD 1881   PATTERN  pmp4Bpat
 1A                              2009                            766                              HEAD 2007   PATTERN  pmp1Apat

[VALVES]

[DEMANDS]
 4                                     0.000000 
 9                                     0.000000 
 10                                    5.680000    domestic
 42                                    3.680000    domestic
 104                                   0.000000 
 164                                   0.000000 
 175                                   0.000000 
 186                                   0.000000 
 197                                   0.000000 
 206                                   0.000000 
 249                                  11.300000    domestic
 264                                   0.000000 
 284                                   0.000000 
 312                                   2.130000    domestic
 320                                   0.000000 
 321                                   0.000000 
 325                                   3.710000    domestic
 353                                   0.000000 
 364                                   0.000000 
 632                                   0.000000 
 633                                   0.000000 
 634                                   0.000000 
 635                                   0.000000 
 636                                   0.000000 
 637                                   1.000000    domestic
 701                                   0.110000    domestic
 729                                   0.000000 
 745                                   1.420000    domestic
 753                                   0.100000    domestic
 766                                   0.000000 
 768                                   0.000000 
 770                                   0.000000 
 771                                   0.000000 
 1125                                  0.000000 
 1302                                  1.000000    forecast
 1963                                  0.000000 
 2009                                  0.000000 
 1250                                  0.000000 
 2010                                  0.000000 
 777                                  -9.160000 
 E                                     0.000000 

[EMITTERS]

[STATUS]

[PATTERNS]
 40                                   70.3300      70.3300      69.5500      69.5500      69.4200      69.4200
 40                                   69.4200      69.4200      70.3300      70.3300      70.3300      70.3300
 40                                   70.3300      70.3300      70.3300      70.3300      70.3300      70.3300
 40                                   70.3300      70.3300      70.2900      70.2900      70.2900      70.2900
 40                                   70.3300      70.3300      70.4200      70.4200      70.4200      70.4200
 40                                   70.3700      70.3700      69.6400      69.6400      69.6800      69.6800
 40                                   69.6800      69.6800      70.4200      70.4200      70.3700      70.3700
 40                                   70.3300      70.3300      70.3300      70.3300      70.3300      70.3300
 domestic                              1.1000       1.1000       1.6100       1.6100       1.5300       1.5300
 domestic                              1.4000       1.4000       1.1500       1.1500       1.0600       1.0600
 domestic                              1.0400       1.0400       1.0000       1.0000       0.9200       0.9200
 domestic                              0.9500       0.9500       1.1600       1.1600       1.3400       1.3400
 domestic                              1.4500       1.4500       1.3200       1.3200       1.3300       1.3300
 domestic                              1.1100       1.1100       1.0700       1.0700       0.7100       0.7100
 domestic                              0.4800       0.4800       0.4600       0.4600       0.4000       0.4000
 domestic                              0.3900       0.3900       0.4100       0.4100       0.5200       0.5200
 forecast                              6.2655       6.7081       4.4768       3.4344       3.6730       2.5960
 forecast                              4.2765       2.8863       3.8337       2.8483       4.2541       3.8016
 forecast                              4.5508       3.5844       5.0369       5.1296       7.5792       7.4008
 forecast                              9.0525       8.4872       9.7366       8.8780       9.4580      10.1000
 forecast                              8.0715      10.6336      10.5198      12.2597       8.8846       7.0311
 forecast                              8.0338       9.9108       8.2856       8.0136       8.8621      10.1552
 forecast                              6.8088       8.3776       7.9061       7.0836       7.6327       7.6182
 forecast                              6.0986       7.0971       7.7529       6.7382       6.3208       5.7581
 pmp1Apat                              1.0000       1.0000       1.0000       1.0000       1.0000       1.0000
 pmp1Apat                              1.0000       1.0000       1.0000       1.0000       1.0000       1.0000
 pmp1Apat                              1.0000       1.0000       1.0000       1.0000       1.0000       1.0000
 pmp1Apat                              1.0000       1.0000       1.0000       1.0000       1.0000       1.0000
 pmp1Apat                              1.0000       1.0000       1.0000       0.0000       0.0000       0.0000
 pmp1Apat                              0.0000       0.0000       0.0000       0.0000       0.0000       0.0000
 pmp1Apat                              0.0000       0.0000       0.0000       0.0000       0.0000       0.0000
 pmp1Apat                              0.0000       0.0000       0.0000       0.0000       0.0000       0.0000
 pmp2Apat                              1.0000       1.0000       1.0000       1.0000       1.0000       1.0000
 pmp2Apat                              1.0000       1.0000       1.0000       1.0000       1.0000       1.0000
 pmp2Apat                              1.0000       1.0000       1.0000       1.0000       1.0000       1.0000
 pmp2Apat                              0.0000       0.0000       0.0000       1.0000       1.0000       1.0000
 pmp2Apat                              0.0000       0.0000       0.0000       1.0000       1.0000       1.0000
 pmp2Apat                              1.0000       1.0000       1.0000       1.0000       1.0000       1.0000
 pmp2Apat                              1.0000       1.0000       1.0000       1.0000       0.0000       0.0000
 pmp2Apat                              0.0000       0.0000       0.0000       0.0000       1.0000       1.0000
 pmp3Apat                              1.0000       1.0000       1.0000       1.0000       1.0000       1.0000
 pmp3Apat                              1.0000       1.0000       1.0000       1.0000       1.0000       1.0000
 pmp3Apat                              1.0000       1.0000       1.0000       1.0000       1.0000       1.0000
 pmp3Apat                              1.0000       1.0000       1.0000       1.0000       1.0000       1.0000
 pmp3Apat                              1.0000       1.0000       1.0000       1.0000       1.0000       1.0000
 pmp3Apat                              1.0000       1.0000       1.0000       1.0000       0.0000       0.0000
 pmp3Apat                              0.0000       0.0000       0.0000       0.0000       0.0000       0.0000
 pmp3Apat                              0.0000       0.0000       0.0000       0.0000       0.0000       0.0000
 pmp4Bpat                              1.0000       1.0000       1.0000       1.0000       1.0000       1.0000
 pmp4Bpat                              0.0000       0.0000       1.0000       1.0000       0.0000       0.0000
 pmp4Bpat                              1.0000       1.0000       1.0000       1.0000       1.0000       1.0000
 pmp4Bpat                              0.0000       0.0000       0.0000       0.0000       1.0000       1.0000
 pmp4Bpat                              0.0000       0.0000       1.0000       1.0000       0.0000       0.0000
 pmp4Bpat                              1.0000       1.0000       0.0000       0.0000       1.0000       1.0000
 pmp4Bpat                              1.0000       1.0000       0.0000       0.0000       0.0000       1.0000
 pmp4Bpat                              0.0000       0.0000       0.0000       0.0000       0.0000       0.0000
 pmp5Cpat                              1.0000       1.0000       1.0000       1.0000       1.0000       1.0000
 pmp5Cpat                              0.0000       0.0000       1.0000       1.0000       0.0000       0.0000
 pmp5Cpat                              0.0000       0.0000       0.0000       0.0000       0.0000       0.0000
 pmp5Cpat                              0.0000       0.0000       0.0000       0.0000       0.0000       0.0000
 pmp5Cpat                              0.0000       0.0000       1.0000       1.0000       1.0000       0.0000
 pmp5Cpat                              0.0000       0.0000       0.0000       1.0000       1.0000       1.0000
 pmp5Cpat                              0.0000       0.0000       0.0000       0.0000       0.0000       0.0000
 pmp5Cpat                              0.0000       0.0000       0.0000       0.0000       0.0000       0.0000
 pmp6Dpat                              0.0000       0.0000       1.0000       1.0000       1.0000       1.0000
 pmp6Dpat                              1.0000       1.0000       1.0000       1.0000       1.0000       1.0000
 pmp6Dpat                              1.0000       1.0000       1.0000       1.0000       1.0000       1.0000
 pmp6Dpat                              0.0000       0.0000       0.0000       0.0000       0.0000       0.0000
 pmp6Dpat                              1.0000       1.0000       1.0000       1.0000       1.0000       1.0000
 pmp6Dpat                              1.0000       1.0000       1.0000       1.0000       1.0000       1.0000
 pmp6Dpat                              1.0000       1.0000       0.0000       0.0000       0.0000       0.0000
 pmp6Dpat                              0.0000       0.0000       1.0000       1.0000       1.0000       1.0000
 pmp7Fpat                              1.0000       1.0000       1.0000       1.0000       1.0000       1.0000
 pmp7Fpat                              0.0000       0.0000       0.0000       0.0000       0.0000       0.0000
 pmp7Fpat                              0.0000       0.0000       0.0000       0.0000       0.0000       0.0000
 pmp7Fpat                              0.0000       0.0000       0.0000       0.0000       0.0000       0.0000
 pmp7Fpat                              0.0000       0.0000       0.0000       0.0000       0.0000       1.0000
 pmp7Fpat                              0.0000       0.0000       0.0000       0.0000       0.0000       0.0000
 pmp7Fpat                              0.0000       0.0000       0.0000       0.0000       0.0000       0.0000
 pmp7Fpat                              0.0000       0.0000       0.0000       0.0000       0.0000       0.0000
 M21pat                               40.7700      58.6200      58.6200      61.0000      60.9600      63.1600
 M21pat                               66.2700      66.8900      67.5100      67.5000      67.4800      67.4700
 M21pat                               67.4500      65.0600      63.1800      64.1600      64.0000      66.1800
 M21pat                               67.3800      67.3900      67.3900      67.4100      67.4200      63.1800
 M21pat                               60.8800      65.8100      64.1200      62.3000      63.8100      61.8200
 M21pat                               60.1200      57.6900      54.6000      40.7700      40.7700      40.7700
 M21pat                               40.7700      40.7700      40.7700      40.7700      40.7700      40.7700
 M21pat                               40.7700      40.7700      40.7700      40.7700      46.4300      46.4300

[CURVES]
 1006                                  0.0000      38.0000
 1006                                 10.0000      37.0000
 1006                                 20.0000      36.0000
 1006                                 30.0000      34.0000
 1006                                 40.0000      31.0000
 1006                                 50.0000      29.0000
 1006                                 60.0000      27.0000
 1006                                 70.0000      25.0000
 1123                                  0.0000      88.0000
 1123                                  2.7800      87.0000
 1123                                  5.5600      84.0000
 1123                                  8.5300      76.0000
 1123                                 11.1100      63.0000
 1123                                 13.8900      47.0000
 1641                                  0.0000     146.0000
 1641                                 10.0000     145.0000
 1641                                 15.0000     144.0000
 1641                                 20.0000     143.0000
 1641                                 25.0000     141.0000
 1641                                 30.0000     138.0000
 1641                                 35.0000     133.0000
 1641                                 40.0000     127.0000
 1641                                 45.0000     120.0000
 1641                                 50.0000     108.0000
 1659                                  0.0000     122.0000
 1659                                  2.2200     120.0000
 1659                                  2.7800     118.0000
 1659                                  3.3300     115.0000
 1659                                  3.8900     110.0000
 1659                                  4.4400     105.0000
 1659                                  5.0000      96.0000
 1659                                  5.5500      85.0000
 1659                                  6.1100      72.0000
 1691                                  0.0000     129.0000
 1691                                 10.0000     128.0000
 1691                                 15.0000     127.0000
 1691                                 20.0000     126.0000
 1691                                 25.0000     124.0000
 1691                                 30.0000     121.0000
 1691                                 35.0000     116.0000
 1691                                 40.0000     110.0000
 1691                                 45.0000     103.0000
 1691                                 50.0000      91.0000
 1881                                  0.0000      40.0000
 1881                                  6.9400      38.5000
 1881                                 13.8800      38.0000
 1881                                 20.8300      37.5000
 1881                                 27.7700      36.0000
 1881                                 34.7200      35.0000
 1881                                 41.6600      32.5000
 1881                                 48.6100      30.0000
 1881                                 55.5500      27.5000
 1881                                111.5000       7.5000
 1883                                  0.0000      37.0000
 1883                                  1.0000      36.9990
 1883                                  2.0000      36.9980
 1883                                  3.0000      36.9970
 1883                                  4.0000      36.9960
 1883                                  5.0000      36.9950
 1883                                  6.0000      36.9940
 1884                                  0.0000     122.0000
 1884                                  2.2200     120.0000
 1884                                  2.7800     118.0000
 1884                                  3.3300     115.0000
 1884                                  3.8900     110.0000
 1884                                  4.4400     105.0000
 1884                                  5.0000      96.0000
 1884                                  5.5500      85.0000
 1884                                  6.1100      72.0000
 1948                                  0.0000      20.0000
 1948                                  0.4000      19.0000
 1948                                  0.8000      16.0000
 1948                                  1.2000      13.0000
 1948                                  1.6000      11.0000
 1948                                  2.0000       7.0000
 2007                                  0.0000     129.0000
 2007                                 10.0000     128.0000
 2007                                 15.0000     127.0000
 2007                                 20.0000     126.0000
 2007                                 25.0000     124.0000
 2007                                 30.0000     121.0000
 2007                                 35.0000     116.0000
 2007                                 40.0000     110.0000
 2007                                 45.0000     103.0000
 2007                                 50.0000      91.0000
 2015                                  0.0000     129.0000
 2015                                 10.0000     128.0000
 2015                                 15.0000     127.0000
 2015                                 20.0000     126.0000
 2015                                 25.0000     124.0000
 2015                                 30.0000     121.0000
 2015                                 35.0000     116.0000
 2015                                 40.0000     110.0000
 2015                                 45.0000     103.0000
 2015                                 50.0000      91.0000
 HHEfficiency                          0.0000       0.0000
 HHEfficiency                          1.1000       0.0000
 HHEfficiency                          1.5000      48.0000
 HHEfficiency                          2.0000      57.0000
 HHEfficiency                          2.5000      62.0000
 HHEfficiency                          3.0000      67.0000
 HHEfficiency                          3.5000      71.0000
 HHEfficiency                          4.5000      71.0000
 HHEfficiency                          5.0000      69.0000
 HHEfficiency                          5.5000      67.0000
 HHEfficiency                          6.0000      62.0000
 CBNEfficiency                         0.0000       0.0000
 CBNEfficiency                        20.0000      57.0000
 CBNEfficiency                        25.0000      65.0000
 CBNEfficiency                        30.0000      71.0000
 CBNEfficiency                        35.0000      75.0000
 CBNEfficiency                        40.0000      75.0000
 CBNEfficiency                        45.0000      75.0000
 CBNEfficiency                        50.0000      73.0000
 CBOEfficiency                         0.0000       0.0000
 CBOEfficiency                        20.0000      57.0000
 CBOEfficiency                        25.0000      65.0000
 CBOEfficiency                        30.0000      71.0000
 CBOEfficiency                        35.0000      75.0000
 CBOEfficiency                        40.0000      75.0000
 CBOEfficiency                        45.0000      72.0000
 CBOEfficiency                        50.0000      70.0000
 LZGEfficiency                         0.0000       0.0000
 LZGEfficiency                         2.7000      32.0000
 LZGEfficiency                         5.5000      50.0000
 LZGEfficiency                         8.3000      55.0000